2
1
.ac dec 1000 10m 100
0
2
.dc V1 0 5 100m
0
